REMARK  6 active torsions:
REMARK  status: ('A' for Active; 'I' for Inactive)
REMARK    1  A    between atoms: C_11  and  O_2 
REMARK    2  A    between atoms: O_2  and  C_13 
REMARK    3  A    between atoms: C_7  and  O_3 
REMARK    4  A    between atoms: C_8  and  O_4 
REMARK    5  A    between atoms: C_9  and  O_5 
REMARK    6  A    between atoms: C_16  and  C_19 
ROOT
HETATM    1  N   UNK N   1       8.614   5.976  -0.008  0.00  0.00    -0.197 NA
HETATM    2  C   UNK N   1       6.349   4.665   0.023  0.00  0.00     0.162 C 
HETATM    3  C   UNK N   1       7.618   5.390  -0.009  0.00  0.00     0.063 C 
ENDROOT
BRANCH   2   4
HETATM    4  C   UNK N   1       6.461   3.171  -0.063  0.00  0.00    -0.045 C 
HETATM    5  C   UNK N   1       7.660   2.441   0.110  0.00  0.00     0.011 C 
HETATM    6  C   UNK N   1       7.647   1.030   0.048  0.00  0.00     0.037 C 
HETATM    7  C   UNK N   1       6.449   0.338  -0.206  0.00  0.00     0.072 C 
HETATM    8  C   UNK N   1       5.293   1.115  -0.492  0.00  0.00     0.037 C 
HETATM    9  C   UNK N   1       5.298   2.487  -0.371  0.00  0.00     0.011 C 
BRANCH   7  10
HETATM   10  O   UNK N   1       6.436  -1.046  -0.117  0.00  0.00    -0.318 OA
BRANCH  10  11
HETATM   11  C   UNK N   1       5.357  -1.842   0.325  0.00  0.00     0.298 C 
HETATM   12  O   UNK N   1       4.204  -1.043   0.358  0.00  0.00    -0.351 OA
HETATM   13  C   UNK N   1       2.953  -1.591   0.640  0.00  0.00     0.152 C 
HETATM   14  C   UNK N   1       2.662  -2.893  -0.136  0.00  0.00     0.178 C 
HETATM   15  C   UNK N   1       1.943  -0.513   0.163  0.00  0.00     0.042 C 
HETATM   16  C   UNK N   1       3.867  -3.846  -0.209  0.00  0.00     0.183 C 
HETATM   17  C   UNK N   1       5.153  -3.066  -0.586  0.00  0.00     0.205 C 
BRANCH  14  18
HETATM   18  O   UNK N   1       1.547  -3.507   0.461  0.00  0.00    -0.390 OA
HETATM   19  H   UNK N   1       1.180  -4.164  -0.180  0.00  0.00     0.210 HD
ENDBRANCH  14  18
BRANCH  16  20
HETATM   20  O   UNK N   1       4.019  -4.540   1.003  0.00  0.00    -0.390 OA
HETATM   21  H   UNK N   1       3.607  -5.437   0.858  0.00  0.00     0.210 HD
ENDBRANCH  16  20
BRANCH  17  22
HETATM   22  O   UNK N   1       6.280  -3.911  -0.562  0.00  0.00    -0.388 OA
HETATM   23  H   UNK N   1       6.385  -4.254   0.367  0.00  0.00     0.210 HD
ENDBRANCH  17  22
ENDBRANCH  10  11
ENDBRANCH   7  10
ENDBRANCH   2   4
TORSDOF 6
