REMARK  6 active torsions:
REMARK  status: ('A' for Active; 'I' for Inactive)
REMARK    1  A    between atoms: C_11  and  O_2 
REMARK    2  A    between atoms: O_2  and  C_13 
REMARK    3  A    between atoms: C_7  and  O_3 
REMARK    4  A    between atoms: C_8  and  O_4 
REMARK    5  A    between atoms: C_9  and  O_5 
REMARK    6  A    between atoms: C_16  and  C_19 
ROOT
HETATM    1  N   UNK N   1       8.627   5.982  -0.036  0.00  0.00    -0.197 NA
HETATM    2  C   UNK N   1       6.330   4.724   0.020  0.00  0.00     0.162 C 
HETATM    3  C   UNK N   1       7.610   5.433   0.003  0.00  0.00     0.063 C 
ENDROOT
BRANCH   2   4
HETATM    4  C   UNK N   1       6.429   3.214   0.000  0.00  0.00    -0.045 A 
HETATM    5  C   UNK N   1       7.631   2.475   0.107  0.00  0.00     0.011 A 
HETATM    6  C   UNK N   1       7.596   1.069   0.070  0.00  0.00     0.037 A 
HETATM    7  C   UNK N   1       6.373   0.391  -0.062  0.00  0.00     0.072 A 
HETATM    8  C   UNK N   1       5.206   1.152  -0.212  0.00  0.00     0.037 A 
HETATM    9  C   UNK N   1       5.233   2.529  -0.162  0.00  0.00     0.011 A 
BRANCH   7  10
HETATM   10  O   UNK N   1       6.366  -0.974  -0.016  0.00  0.00    -0.318 OA
BRANCH  10  11
HETATM   11  C   UNK N   1       5.375  -1.834   0.478  0.00  0.00     0.298 C 
HETATM   12  O   UNK N   1       4.127  -1.204   0.826  0.00  0.00    -0.351 OA
HETATM   13  C   UNK N   1       3.114  -1.448  -0.142  0.00  0.00     0.152 C 
HETATM   14  C   UNK N   1       2.739  -2.951  -0.211  0.00  0.00     0.178 C 
HETATM   15  C   UNK N   1       1.891  -0.542   0.094  0.00  0.00     0.042 C 
HETATM   16  C   UNK N   1       3.967  -3.839   0.098  0.00  0.00     0.183 C 
HETATM   17  C   UNK N   1       5.235  -3.117  -0.395  0.00  0.00     0.205 C 
BRANCH  14  18
HETATM   18  O   UNK N   1       1.704  -3.278   0.680  0.00  0.00    -0.390 OA
HETATM   19  H   UNK N   1       1.100  -3.905   0.202  0.00  0.00     0.210 HD
ENDBRANCH  14  18
BRANCH  16  20
HETATM   20  O   UNK N   1       3.827  -5.099  -0.499  0.00  0.00    -0.390 OA
HETATM   21  H   UNK N   1       3.044  -5.529  -0.065  0.00  0.00     0.210 HD
ENDBRANCH  16  20
BRANCH  17  22
HETATM   22  O   UNK N   1       6.398  -3.907  -0.298  0.00  0.00    -0.388 OA
HETATM   23  H   UNK N   1       6.310  -4.512   0.485  0.00  0.00     0.210 HD
ENDBRANCH  17  22
ENDBRANCH  10  11
ENDBRANCH   7  10
ENDBRANCH   2   4
TORSDOF 6
