MODEL 1
REMARK VINA RESULT:      -6.8      0.000      0.000
REMARK  6 active torsions:
REMARK  status: ('A' for Active; 'I' for Inactive)
REMARK    1  A    between atoms: C_11  and  O_2 
REMARK    2  A    between atoms: O_2  and  C_13 
REMARK    3  A    between atoms: C_7  and  O_3 
REMARK    4  A    between atoms: C_8  and  O_4 
REMARK    5  A    between atoms: C_9  and  O_5 
REMARK    6  A    between atoms: C_16  and  C_19 
ROOT
HETATM    1  N   UNK N   1      -5.083  18.140  71.277  0.00  0.00    -0.197 NA
HETATM    2  C   UNK N   1      -6.192  19.637  69.440  0.00  0.00     0.162 C 
HETATM    3  C   UNK N   1      -5.566  18.791  70.453  0.00  0.00     0.063 C 
ENDROOT
BRANCH   2   4
HETATM    4  C   UNK N   1      -7.181  18.942  68.530  0.00  0.00    -0.045 A 
HETATM    5  C   UNK N   1      -8.594  18.984  68.654  0.00  0.00     0.011 A 
HETATM    6  C   UNK N   1      -9.408  18.336  67.697  0.00  0.00     0.037 A 
HETATM    7  C   UNK N   1      -8.817  17.620  66.637  0.00  0.00     0.072 A 
HETATM    8  C   UNK N   1      -7.410  17.544  66.595  0.00  0.00     0.037 A 
HETATM    9  C   UNK N   1      -6.623  18.211  67.494  0.00  0.00     0.011 A 
BRANCH   7  10
HETATM   10  O   UNK N   1      -9.591  17.044  65.657  0.00  0.00    -0.318 OA
BRANCH  10  11
HETATM   11  C   UNK N   1     -10.499  16.011  65.910  0.00  0.00     0.298 C 
HETATM   12  O   UNK N   1      -9.797  14.968  66.549  0.00  0.00    -0.351 OA
HETATM   13  C   UNK N   1     -10.546  13.860  67.007  0.00  0.00     0.152 C 
HETATM   14  C   UNK N   1     -11.951  13.659  66.371  0.00  0.00     0.178 C 
HETATM   15  C   UNK N   1     -10.586  13.809  68.558  0.00  0.00     0.042 C 
HETATM   16  C   UNK N   1     -12.237  14.472  65.065  0.00  0.00     0.183 C 
HETATM   17  C   UNK N   1     -11.092  15.421  64.629  0.00  0.00     0.205 C 
BRANCH  14  18
HETATM   18  O   UNK N   1     -12.174  12.280  66.201  0.00  0.00    -0.390 OA
HETATM   19  H   UNK N   1     -12.406  12.122  65.251  0.00  0.00     0.210 HD
ENDBRANCH  14  18
BRANCH  16  20
HETATM   20  O   UNK N   1     -12.628  13.647  63.999  0.00  0.00    -0.390 OA
HETATM   21  H   UNK N   1     -13.479  13.215  64.276  0.00  0.00     0.210 HD
ENDBRANCH  16  20
BRANCH  17  22
HETATM   22  O   UNK N   1     -11.559  16.451  63.790  0.00  0.00    -0.388 OA
HETATM   23  H   UNK N   1     -10.811  16.757  63.214  0.00  0.00     0.210 HD
ENDBRANCH  17  22
ENDBRANCH  10  11
ENDBRANCH   7  10
ENDBRANCH   2   4
TORSDOF 6
ENDMDL
MODEL 2
REMARK VINA RESULT:      -6.5      3.456      6.669
REMARK  6 active torsions:
REMARK  status: ('A' for Active; 'I' for Inactive)
REMARK    1  A    between atoms: C_11  and  O_2 
REMARK    2  A    between atoms: O_2  and  C_13 
REMARK    3  A    between atoms: C_7  and  O_3 
REMARK    4  A    between atoms: C_8  and  O_4 
REMARK    5  A    between atoms: C_9  and  O_5 
REMARK    6  A    between atoms: C_16  and  C_19 
ROOT
HETATM    1  N   UNK N   1      -8.370   8.701  71.705  0.00  0.00    -0.197 NA
HETATM    2  C   UNK N   1     -10.879   9.202  71.154  0.00  0.00     0.162 C 
HETATM    3  C   UNK N   1      -9.475   8.940  71.464  0.00  0.00     0.063 C 
ENDROOT
BRANCH   2   4
HETATM    4  C   UNK N   1     -11.126  10.082  69.947  0.00  0.00    -0.045 A 
HETATM    5  C   UNK N   1     -10.738   9.788  68.614  0.00  0.00     0.011 A 
HETATM    6  C   UNK N   1     -11.085  10.672  67.566  0.00  0.00     0.037 A 
HETATM    7  C   UNK N   1     -11.788  11.859  67.848  0.00  0.00     0.072 A 
HETATM    8  C   UNK N   1     -12.088  12.145  69.195  0.00  0.00     0.037 A 
HETATM    9  C   UNK N   1     -11.794  11.267  70.203  0.00  0.00     0.011 A 
BRANCH   7  10
HETATM   10  O   UNK N   1     -12.197  12.695  66.834  0.00  0.00    -0.318 OA
BRANCH  10  11
HETATM   11  C   UNK N   1     -11.440  13.784  66.391  0.00  0.00     0.298 C 
HETATM   12  O   UNK N   1     -11.378  14.722  67.442  0.00  0.00    -0.351 OA
HETATM   13  C   UNK N   1     -10.559  15.858  67.257  0.00  0.00     0.152 C 
HETATM   14  C   UNK N   1     -10.187  16.218  65.790  0.00  0.00     0.178 C 
HETATM   15  C   UNK N   1      -9.316  15.817  68.188  0.00  0.00     0.042 C 
HETATM   16  C   UNK N   1     -11.033  15.515  64.676  0.00  0.00     0.183 C 
HETATM   17  C   UNK N   1     -12.080  14.501  65.201  0.00  0.00     0.205 C 
BRANCH  14  18
HETATM   18  O   UNK N   1     -10.189  17.619  65.656  0.00  0.00    -0.390 OA
HETATM   19  H   UNK N   1      -9.344  17.965  66.041  0.00  0.00     0.210 HD
ENDBRANCH  14  18
BRANCH  16  20
HETATM   20  O   UNK N   1     -11.630  16.435  63.801  0.00  0.00    -0.390 OA
HETATM   21  H   UNK N   1     -10.889  16.862  63.294  0.00  0.00     0.210 HD
ENDBRANCH  16  20
BRANCH  17  22
HETATM   22  O   UNK N   1     -12.445  13.568  64.210  0.00  0.00    -0.388 OA
HETATM   23  H   UNK N   1     -13.235  13.058  64.528  0.00  0.00     0.210 HD
ENDBRANCH  17  22
ENDBRANCH  10  11
ENDBRANCH   7  10
ENDBRANCH   2   4
TORSDOF 6
ENDMDL
MODEL 3
REMARK VINA RESULT:      -6.5      5.783      7.679
REMARK  6 active torsions:
REMARK  status: ('A' for Active; 'I' for Inactive)
REMARK    1  A    between atoms: C_11  and  O_2 
REMARK    2  A    between atoms: O_2  and  C_13 
REMARK    3  A    between atoms: C_7  and  O_3 
REMARK    4  A    between atoms: C_8  and  O_4 
REMARK    5  A    between atoms: C_9  and  O_5 
REMARK    6  A    between atoms: C_16  and  C_19 
ROOT
HETATM    1  N   UNK N   1     -15.202   8.179  72.047  0.00  0.00    -0.197 NA
HETATM    2  C   UNK N   1     -12.734   9.000  72.333  0.00  0.00     0.162 C 
HETATM    3  C   UNK N   1     -14.107   8.534  72.158  0.00  0.00     0.063 C 
ENDROOT
BRANCH   2   4
HETATM    4  C   UNK N   1     -12.206   9.897  71.234  0.00  0.00    -0.045 A 
HETATM    5  C   UNK N   1     -11.322   9.503  70.195  0.00  0.00     0.011 A 
HETATM    6  C   UNK N   1     -10.952  10.429  69.193  0.00  0.00     0.037 A 
HETATM    7  C   UNK N   1     -11.434  11.752  69.242  0.00  0.00     0.072 A 
HETATM    8  C   UNK N   1     -12.251  12.117  70.331  0.00  0.00     0.037 A 
HETATM    9  C   UNK N   1     -12.647  11.208  71.275  0.00  0.00     0.011 A 
BRANCH   7  10
HETATM   10  O   UNK N   1     -11.144  12.647  68.239  0.00  0.00    -0.318 OA
BRANCH  10  11
HETATM   11  C   UNK N   1     -11.368  12.376  66.886  0.00  0.00     0.298 C 
HETATM   12  O   UNK N   1     -10.149  11.941  66.325  0.00  0.00    -0.351 OA
HETATM   13  C   UNK N   1     -10.167  11.497  64.984  0.00  0.00     0.152 C 
HETATM   14  C   UNK N   1     -11.373  11.955  64.115  0.00  0.00     0.178 C 
HETATM   15  C   UNK N   1      -9.921   9.966  64.893  0.00  0.00     0.042 C 
HETATM   16  C   UNK N   1     -12.233  13.127  64.696  0.00  0.00     0.183 C 
HETATM   17  C   UNK N   1     -11.794  13.618  66.099  0.00  0.00     0.205 C 
BRANCH  14  18
HETATM   18  O   UNK N   1     -10.911  12.227  62.813  0.00  0.00    -0.390 OA
HETATM   19  H   UNK N   1     -11.054  11.417  62.262  0.00  0.00     0.210 HD
ENDBRANCH  14  18
BRANCH  16  20
HETATM   20  O   UNK N   1     -12.335  14.206  63.805  0.00  0.00    -0.390 OA
HETATM   21  H   UNK N   1     -12.746  14.953  64.315  0.00  0.00     0.210 HD
ENDBRANCH  16  20
BRANCH  17  22
HETATM   22  O   UNK N   1     -12.840  14.283  66.769  0.00  0.00    -0.388 OA
HETATM   23  H   UNK N   1     -13.336  13.622  67.320  0.00  0.00     0.210 HD
ENDBRANCH  17  22
ENDBRANCH  10  11
ENDBRANCH   7  10
ENDBRANCH   2   4
TORSDOF 6
ENDMDL
MODEL 4
REMARK VINA RESULT:      -6.0      5.465      7.487
REMARK  6 active torsions:
REMARK  status: ('A' for Active; 'I' for Inactive)
REMARK    1  A    between atoms: C_11  and  O_2 
REMARK    2  A    between atoms: O_2  and  C_13 
REMARK    3  A    between atoms: C_7  and  O_3 
REMARK    4  A    between atoms: C_8  and  O_4 
REMARK    5  A    between atoms: C_9  and  O_5 
REMARK    6  A    between atoms: C_16  and  C_19 
ROOT
HETATM    1  N   UNK N   1      -9.631   7.427  73.509  0.00  0.00    -0.197 NA
HETATM    2  C   UNK N   1     -11.824   8.213  72.316  0.00  0.00     0.162 C 
HETATM    3  C   UNK N   1     -10.597   7.790  72.988  0.00  0.00     0.063 C 
ENDROOT
BRANCH   2   4
HETATM    4  C   UNK N   1     -11.656   9.299  71.275  0.00  0.00    -0.045 A 
HETATM    5  C   UNK N   1     -12.405  10.502  71.204  0.00  0.00     0.011 A 
HETATM    6  C   UNK N   1     -12.104  11.464  70.213  0.00  0.00     0.037 A 
HETATM    7  C   UNK N   1     -11.084  11.215  69.274  0.00  0.00     0.072 A 
HETATM    8  C   UNK N   1     -10.417   9.975  69.338  0.00  0.00     0.037 A 
HETATM    9  C   UNK N   1     -10.675   9.065  70.327  0.00  0.00     0.011 A 
BRANCH   7  10
HETATM   10  O   UNK N   1     -10.730  12.168  68.347  0.00  0.00    -0.318 OA
BRANCH  10  11
HETATM   11  C   UNK N   1     -11.189  12.157  67.027  0.00  0.00     0.298 C 
HETATM   12  O   UNK N   1     -10.089  11.876  66.190  0.00  0.00    -0.351 OA
HETATM   13  C   UNK N   1     -10.345  11.699  64.812  0.00  0.00     0.152 C 
HETATM   14  C   UNK N   1     -11.683  12.279  64.271  0.00  0.00     0.178 C 
HETATM   15  C   UNK N   1     -10.123  10.224  64.382  0.00  0.00     0.042 C 
HETATM   16  C   UNK N   1     -12.423  13.288  65.210  0.00  0.00     0.183 C 
HETATM   17  C   UNK N   1     -11.743  13.513  66.585  0.00  0.00     0.205 C 
BRANCH  14  18
HETATM   18  O   UNK N   1     -11.456  12.811  62.988  0.00  0.00    -0.390 OA
HETATM   19  H   UNK N   1     -12.013  12.306  62.343  0.00  0.00     0.210 HD
ENDBRANCH  14  18
BRANCH  16  20
HETATM   20  O   UNK N   1     -12.677  14.515  64.578  0.00  0.00    -0.390 OA
HETATM   21  H   UNK N   1     -11.811  15.002  64.553  0.00  0.00     0.210 HD
ENDBRANCH  16  20
BRANCH  17  22
HETATM   22  O   UNK N   1     -12.653  14.002  67.543  0.00  0.00    -0.388 OA
HETATM   23  H   UNK N   1     -13.413  14.431  67.070  0.00  0.00     0.210 HD
ENDBRANCH  17  22
ENDBRANCH  10  11
ENDBRANCH   7  10
ENDBRANCH   2   4
TORSDOF 6
ENDMDL
MODEL 5
REMARK VINA RESULT:      -5.9      4.052      7.130
REMARK  6 active torsions:
REMARK  status: ('A' for Active; 'I' for Inactive)
REMARK    1  A    between atoms: C_11  and  O_2 
REMARK    2  A    between atoms: O_2  and  C_13 
REMARK    3  A    between atoms: C_7  and  O_3 
REMARK    4  A    between atoms: C_8  and  O_4 
REMARK    5  A    between atoms: C_9  and  O_5 
REMARK    6  A    between atoms: C_16  and  C_19 
ROOT
HETATM    1  N   UNK N   1      -6.525   7.722  67.069  0.00  0.00    -0.197 NA
HETATM    2  C   UNK N   1      -9.023   7.559  66.305  0.00  0.00     0.162 C 
HETATM    3  C   UNK N   1      -7.634   7.654  66.748  0.00  0.00     0.063 C 
ENDROOT
BRANCH   2   4
HETATM    4  C   UNK N   1      -9.849   8.816  66.478  0.00  0.00    -0.045 A 
HETATM    5  C   UNK N   1     -10.555   9.188  67.652  0.00  0.00     0.011 A 
HETATM    6  C   UNK N   1     -11.241  10.423  67.702  0.00  0.00     0.037 A 
HETATM    7  C   UNK N   1     -11.252  11.270  66.576  0.00  0.00     0.072 A 
HETATM    8  C   UNK N   1     -10.600  10.826  65.409  0.00  0.00     0.037 A 
HETATM    9  C   UNK N   1      -9.895   9.652  65.376  0.00  0.00     0.011 A 
BRANCH   7  10
HETATM   10  O   UNK N   1     -11.854  12.506  66.629  0.00  0.00    -0.318 OA
BRANCH  10  11
HETATM   11  C   UNK N   1     -11.227  13.679  66.199  0.00  0.00     0.298 C 
HETATM   12  O   UNK N   1     -11.176  14.567  67.295  0.00  0.00    -0.351 OA
HETATM   13  C   UNK N   1     -10.474  15.781  67.121  0.00  0.00     0.152 C 
HETATM   14  C   UNK N   1     -10.235  16.243  65.655  0.00  0.00     0.178 C 
HETATM   15  C   UNK N   1      -9.173  15.807  67.968  0.00  0.00     0.042 C 
HETATM   16  C   UNK N   1     -11.088  15.522  64.560  0.00  0.00     0.183 C 
HETATM   17  C   UNK N   1     -12.006  14.393  65.092  0.00  0.00     0.205 C 
BRANCH  14  18
HETATM   18  O   UNK N   1     -10.368  17.644  65.599  0.00  0.00    -0.390 OA
HETATM   19  H   UNK N   1      -9.463  18.034  65.500  0.00  0.00     0.210 HD
ENDBRANCH  14  18
BRANCH  16  20
HETATM   20  O   UNK N   1     -11.822  16.426  63.775  0.00  0.00    -0.390 OA
HETATM   21  H   UNK N   1     -12.252  17.061  64.407  0.00  0.00     0.210 HD
ENDBRANCH  16  20
BRANCH  17  22
HETATM   22  O   UNK N   1     -12.353  13.480  64.077  0.00  0.00    -0.388 OA
HETATM   23  H   UNK N   1     -12.384  13.964  63.211  0.00  0.00     0.210 HD
ENDBRANCH  17  22
ENDBRANCH  10  11
ENDBRANCH   7  10
ENDBRANCH   2   4
TORSDOF 6
ENDMDL
MODEL 6
REMARK VINA RESULT:      -5.8      4.214      7.081
REMARK  6 active torsions:
REMARK  status: ('A' for Active; 'I' for Inactive)
REMARK    1  A    between atoms: C_11  and  O_2 
REMARK    2  A    between atoms: O_2  and  C_13 
REMARK    3  A    between atoms: C_7  and  O_3 
REMARK    4  A    between atoms: C_8  and  O_4 
REMARK    5  A    between atoms: C_9  and  O_5 
REMARK    6  A    between atoms: C_16  and  C_19 
ROOT
HETATM    1  N   UNK N   1     -11.243   6.627  70.470  0.00  0.00    -0.197 NA
HETATM    2  C   UNK N   1     -11.512   9.126  71.198  0.00  0.00     0.162 C 
HETATM    3  C   UNK N   1     -11.344   7.733  70.790  0.00  0.00     0.063 C 
ENDROOT
BRANCH   2   4
HETATM    4  C   UNK N   1     -11.068  10.160  70.185  0.00  0.00    -0.045 A 
HETATM    5  C   UNK N   1     -11.787  11.328  69.823  0.00  0.00     0.011 A 
HETATM    6  C   UNK N   1     -11.229  12.246  68.903  0.00  0.00     0.037 A 
HETATM    7  C   UNK N   1      -9.973  11.985  68.321  0.00  0.00     0.072 A 
HETATM    8  C   UNK N   1      -9.329  10.776  68.654  0.00  0.00     0.037 A 
HETATM    9  C   UNK N   1      -9.847   9.912  69.580  0.00  0.00     0.011 A 
BRANCH   7  10
HETATM   10  O   UNK N   1      -9.382  12.898  67.479  0.00  0.00    -0.318 OA
BRANCH  10  11
HETATM   11  C   UNK N   1     -10.106  13.855  66.761  0.00  0.00     0.298 C 
HETATM   12  O   UNK N   1     -10.220  13.400  65.431  0.00  0.00    -0.351 OA
HETATM   13  C   UNK N   1     -11.020  14.158  64.547  0.00  0.00     0.152 C 
HETATM   14  C   UNK N   1     -11.307  15.631  64.957  0.00  0.00     0.178 C 
HETATM   15  C   UNK N   1     -12.313  13.391  64.156  0.00  0.00     0.042 C 
HETATM   16  C   UNK N   1     -10.405  16.215  66.095  0.00  0.00     0.183 C 
HETATM   17  C   UNK N   1      -9.395  15.209  66.702  0.00  0.00     0.205 C 
BRANCH  14  18
HETATM   18  O   UNK N   1     -11.289  16.431  63.799  0.00  0.00    -0.390 OA
HETATM   19  H   UNK N   1     -11.488  15.850  63.022  0.00  0.00     0.210 HD
ENDBRANCH  14  18
BRANCH  16  20
HETATM   20  O   UNK N   1      -9.754  17.395  65.706  0.00  0.00    -0.390 OA
HETATM   21  H   UNK N   1      -9.877  18.042  66.451  0.00  0.00     0.210 HD
ENDBRANCH  16  20
BRANCH  17  22
HETATM   22  O   UNK N   1      -8.982  15.598  67.991  0.00  0.00    -0.388 OA
HETATM   23  H   UNK N   1      -9.774  15.919  68.496  0.00  0.00     0.210 HD
ENDBRANCH  17  22
ENDBRANCH  10  11
ENDBRANCH   7  10
ENDBRANCH   2   4
TORSDOF 6
ENDMDL
MODEL 7
REMARK VINA RESULT:      -5.7      1.910      2.260
REMARK  6 active torsions:
REMARK  status: ('A' for Active; 'I' for Inactive)
REMARK    1  A    between atoms: C_11  and  O_2 
REMARK    2  A    between atoms: O_2  and  C_13 
REMARK    3  A    between atoms: C_7  and  O_3 
REMARK    4  A    between atoms: C_8  and  O_4 
REMARK    5  A    between atoms: C_9  and  O_5 
REMARK    6  A    between atoms: C_16  and  C_19 
ROOT
HETATM    1  N   UNK N   1      -4.947  13.693  69.939  0.00  0.00    -0.197 NA
HETATM    2  C   UNK N   1      -5.081  16.044  68.797  0.00  0.00     0.162 C 
HETATM    3  C   UNK N   1      -5.008  14.724  69.419  0.00  0.00     0.063 C 
ENDROOT
BRANCH   2   4
HETATM    4  C   UNK N   1      -6.372  16.350  68.068  0.00  0.00    -0.045 A 
HETATM    5  C   UNK N   1      -6.488  16.688  66.694  0.00  0.00     0.011 A 
HETATM    6  C   UNK N   1      -7.765  16.892  66.122  0.00  0.00     0.037 A 
HETATM    7  C   UNK N   1      -8.920  16.792  66.922  0.00  0.00     0.072 A 
HETATM    8  C   UNK N   1      -8.752  16.527  68.296  0.00  0.00     0.037 A 
HETATM    9  C   UNK N   1      -7.519  16.282  68.839  0.00  0.00     0.011 A 
BRANCH   7  10
HETATM   10  O   UNK N   1     -10.174  16.917  66.369  0.00  0.00    -0.318 OA
BRANCH  10  11
HETATM   11  C   UNK N   1     -11.020  15.827  66.143  0.00  0.00     0.298 C 
HETATM   12  O   UNK N   1     -10.422  14.690  66.724  0.00  0.00    -0.351 OA
HETATM   13  C   UNK N   1     -11.164  13.487  66.719  0.00  0.00     0.152 C 
HETATM   14  C   UNK N   1     -12.327  13.390  65.691  0.00  0.00     0.178 C 
HETATM   15  C   UNK N   1     -11.608  13.091  68.153  0.00  0.00     0.042 C 
HETATM   16  C   UNK N   1     -12.328  14.463  64.552  0.00  0.00     0.183 C 
HETATM   17  C   UNK N   1     -11.198  15.519  64.655  0.00  0.00     0.205 C 
BRANCH  14  18
HETATM   18  O   UNK N   1     -12.372  12.077  65.186  0.00  0.00    -0.390 OA
HETATM   19  H   UNK N   1     -13.081  12.038  64.495  0.00  0.00     0.210 HD
ENDBRANCH  14  18
BRANCH  16  20
HETATM   20  O   UNK N   1     -12.348  13.884  63.274  0.00  0.00    -0.390 OA
HETATM   21  H   UNK N   1     -11.966  14.561  62.653  0.00  0.00     0.210 HD
ENDBRANCH  16  20
BRANCH  17  22
HETATM   22  O   UNK N   1     -11.517  16.695  63.949  0.00  0.00    -0.388 OA
HETATM   23  H   UNK N   1     -10.674  17.155  63.699  0.00  0.00     0.210 HD
ENDBRANCH  17  22
ENDBRANCH  10  11
ENDBRANCH   7  10
ENDBRANCH   2   4
TORSDOF 6
ENDMDL
MODEL 8
REMARK VINA RESULT:      -5.6      4.093      7.184
REMARK  6 active torsions:
REMARK  status: ('A' for Active; 'I' for Inactive)
REMARK    1  A    between atoms: C_11  and  O_2 
REMARK    2  A    between atoms: O_2  and  C_13 
REMARK    3  A    between atoms: C_7  and  O_3 
REMARK    4  A    between atoms: C_8  and  O_4 
REMARK    5  A    between atoms: C_9  and  O_5 
REMARK    6  A    between atoms: C_16  and  C_19 
ROOT
HETATM    1  N   UNK N   1      -8.348   8.285  73.349  0.00  0.00    -0.197 NA
HETATM    2  C   UNK N   1     -10.633   8.220  72.075  0.00  0.00     0.162 C 
HETATM    3  C   UNK N   1      -9.362   8.272  72.793  0.00  0.00     0.063 C 
ENDROOT
BRANCH   2   4
HETATM    4  C   UNK N   1     -10.880   9.356  71.105  0.00  0.00    -0.045 A 
HETATM    5  C   UNK N   1     -10.040   9.717  70.020  0.00  0.00     0.011 A 
HETATM    6  C   UNK N   1     -10.419  10.765  69.150  0.00  0.00     0.037 A 
HETATM    7  C   UNK N   1     -11.615  11.473  69.379  0.00  0.00     0.072 A 
HETATM    8  C   UNK N   1     -12.381  11.128  70.510  0.00  0.00     0.037 A 
HETATM    9  C   UNK N   1     -12.038  10.083  71.325  0.00  0.00     0.011 A 
BRANCH   7  10
HETATM   10  O   UNK N   1     -12.037  12.448  68.504  0.00  0.00    -0.318 OA
BRANCH  10  11
HETATM   11  C   UNK N   1     -11.163  13.163  67.679  0.00  0.00     0.298 C 
HETATM   12  O   UNK N   1     -10.863  14.381  68.324  0.00  0.00    -0.351 OA
HETATM   13  C   UNK N   1      -9.897  15.219  67.722  0.00  0.00     0.152 C 
HETATM   14  C   UNK N   1      -9.608  14.975  66.213  0.00  0.00     0.178 C 
HETATM   15  C   UNK N   1      -8.598  15.284  68.570  0.00  0.00     0.042 C 
HETATM   16  C   UNK N   1     -10.648  14.090  65.448  0.00  0.00     0.183 C 
HETATM   17  C   UNK N   1     -11.789  13.523  66.330  0.00  0.00     0.205 C 
BRANCH  14  18
HETATM   18  O   UNK N   1      -9.404  16.220  65.588  0.00  0.00    -0.390 OA
HETATM   19  H   UNK N   1      -8.539  16.183  65.106  0.00  0.00     0.210 HD
ENDBRANCH  14  18
BRANCH  16  20
HETATM   20  O   UNK N   1     -11.171  14.739  64.320  0.00  0.00    -0.390 OA
HETATM   21  H   UNK N   1     -11.841  15.392  64.657  0.00  0.00     0.210 HD
ENDBRANCH  16  20
BRANCH  17  22
HETATM   22  O   UNK N   1     -12.380  12.384  65.749  0.00  0.00    -0.388 OA
HETATM   23  H   UNK N   1     -11.669  11.719  65.557  0.00  0.00     0.210 HD
ENDBRANCH  17  22
ENDBRANCH  10  11
ENDBRANCH   7  10
ENDBRANCH   2   4
TORSDOF 6
ENDMDL
MODEL 9
REMARK VINA RESULT:      -5.5      6.059      7.781
REMARK  6 active torsions:
REMARK  status: ('A' for Active; 'I' for Inactive)
REMARK    1  A    between atoms: C_11  and  O_2 
REMARK    2  A    between atoms: O_2  and  C_13 
REMARK    3  A    between atoms: C_7  and  O_3 
REMARK    4  A    between atoms: C_8  and  O_4 
REMARK    5  A    between atoms: C_9  and  O_5 
REMARK    6  A    between atoms: C_16  and  C_19 
ROOT
HETATM    1  N   UNK N   1     -12.163   6.426  71.860  0.00  0.00    -0.197 NA
HETATM    2  C   UNK N   1     -12.667   8.992  71.972  0.00  0.00     0.162 C 
HETATM    3  C   UNK N   1     -12.369   7.563  71.911  0.00  0.00     0.063 C 
ENDROOT
BRANCH   2   4
HETATM    4  C   UNK N   1     -12.035   9.836  70.886  0.00  0.00    -0.045 A 
HETATM    5  C   UNK N   1     -12.339  11.195  70.610  0.00  0.00     0.011 A 
HETATM    6  C   UNK N   1     -11.628  11.887  69.603  0.00  0.00     0.037 A 
HETATM    7  C   UNK N   1     -10.642  11.220  68.850  0.00  0.00     0.072 A 
HETATM    8  C   UNK N   1     -10.425   9.852  69.110  0.00  0.00     0.037 A 
HETATM    9  C   UNK N   1     -11.079   9.194  70.117  0.00  0.00     0.011 A 
BRANCH   7  10
HETATM   10  O   UNK N   1      -9.891  11.895  67.915  0.00  0.00    -0.318 OA
BRANCH  10  11
HETATM   11  C   UNK N   1     -10.265  12.006  66.572  0.00  0.00     0.298 C 
HETATM   12  O   UNK N   1     -11.667  12.151  66.526  0.00  0.00    -0.351 OA
HETATM   13  C   UNK N   1     -12.258  12.400  65.267  0.00  0.00     0.152 C 
HETATM   14  C   UNK N   1     -11.411  12.029  64.015  0.00  0.00     0.178 C 
HETATM   15  C   UNK N   1     -12.832  13.840  65.187  0.00  0.00     0.042 C 
HETATM   16  C   UNK N   1     -10.172  11.109  64.273  0.00  0.00     0.183 C 
HETATM   17  C   UNK N   1      -9.926  10.754  65.761  0.00  0.00     0.205 C 
BRANCH  14  18
HETATM   18  O   UNK N   1     -12.270  11.504  63.031  0.00  0.00    -0.390 OA
HETATM   19  H   UNK N   1     -12.902  10.884  63.475  0.00  0.00     0.210 HD
ENDBRANCH  14  18
BRANCH  16  20
HETATM   20  O   UNK N   1     -10.198   9.947  63.485  0.00  0.00    -0.390 OA
HETATM   21  H   UNK N   1     -10.667  10.190  62.643  0.00  0.00     0.210 HD
ENDBRANCH  16  20
BRANCH  17  22
HETATM   22  O   UNK N   1      -8.590  10.372  65.992  0.00  0.00    -0.388 OA
HETATM   23  H   UNK N   1      -8.004  11.161  65.851  0.00  0.00     0.210 HD
ENDBRANCH  17  22
ENDBRANCH  10  11
ENDBRANCH   7  10
ENDBRANCH   2   4
TORSDOF 6
ENDMDL
