@<TRIPOS>MOLECULE
/home/prabhav/02OnceMore/lig.pdb
 37 38 0 0 0
SMALL
GASTEIGER

@<TRIPOS>ATOM
      1  N         -5.0830   18.1400   71.2770 N.1     1  UNK1       -0.1962
      2  C         -6.1920   19.6370   69.4400 C.3     1  UNK1        0.0598
      3  C         -5.5660   18.7910   70.4530 C.1     1  UNK1        0.0672
      4  C         -7.1810   18.9420   68.5300 C.ar    1  UNK1       -0.0334
      5  C         -8.5940   18.9840   68.6540 C.ar    1  UNK1       -0.0542
      6  C         -9.4080   18.3360   67.6970 C.ar    1  UNK1       -0.0195
      7  C         -8.8170   17.6200   66.6370 C.ar    1  UNK1        0.1240
      8  C         -7.4100   17.5440   66.5950 C.ar    1  UNK1       -0.0195
      9  C         -6.6230   18.2110   67.4940 C.ar    1  UNK1       -0.0542
     10  O         -9.5910   17.0440   65.6570 O.3     1  UNK1       -0.4608
     11  C        -10.4990   16.0110   65.9100 C.3     1  UNK1        0.2307
     12  O         -9.7970   14.9680   66.5490 O.3     1  UNK1       -0.3339
     13  C        -10.5460   13.8600   67.0070 C.3     1  UNK1        0.0883
     14  C        -11.9510   13.6590   66.3710 C.3     1  UNK1        0.1096
     15  C        -10.5860   13.8090   68.5580 C.3     1  UNK1       -0.0360
     16  C        -12.2370   14.4720   65.0650 C.3     1  UNK1        0.1151
     17  C        -11.0920   15.4210   64.6290 C.3     1  UNK1        0.1454
     18  O        -12.1740   12.2800   66.2010 O.3     1  UNK1       -0.3866
     19  H        -12.4060   12.1220   65.2510 H       1  UNK1        0.2100
     20  O        -12.6280   13.6470   63.9990 O.3     1  UNK1       -0.3864
     21  H        -13.4790   13.2150   64.2760 H       1  UNK1        0.2100
     22  O        -11.5590   16.4510   63.7900 O.3     1  UNK1       -0.3829
     23  H        -10.8110   16.7570   63.2140 H       1  UNK1        0.2102
     24 H          -6.7074   20.4278   69.9439 H       1  UNK1        0.0467
     25 H          -5.3975   19.9736   68.8072 H       1  UNK1        0.0467
     26 H          -9.0276   19.4879   69.4433 H       1  UNK1        0.0622
     27 H         -10.4358   18.3874   67.7747 H       1  UNK1        0.0654
     28 H          -6.9606   16.9689   65.8654 H       1  UNK1        0.0654
     29 H          -5.5963   18.1687   67.3986 H       1  UNK1        0.0622
     30 H         -11.2937   16.4154   66.5014 H       1  UNK1        0.1084
     31 H         -10.0020   13.0130   66.6443 H       1  UNK1        0.0621
     32 H         -12.6577   14.0753   67.0581 H       1  UNK1        0.0646
     33 H         -11.1287   14.6533   68.9287 H       1  UNK1        0.0255
     34 H          -9.5873   13.8306   68.9414 H       1  UNK1        0.0255
     35 H         -11.0695   12.9079   68.8729 H       1  UNK1        0.0255
     36 H         -13.0587   15.1046   65.3285 H       1  UNK1        0.0648
     37 H         -10.3593   14.8794   64.0680 H       1  UNK1        0.0683
@<TRIPOS>BOND
     1    23    22    1
     2    22    17    1
     3    20    21    1
     4    20    16    1
     5    17    16    1
     6    17    11    1
     7    16    14    1
     8    19    18    1
     9    10    11    1
    10    10     7    1
    11    11    12    1
    12    18    14    1
    13    14    13    1
    14    12    13    1
    15     8     7   ar
    16     8     9   ar
    17     7     6   ar
    18    13    15    1
    19     9     4   ar
    20     6     5   ar
    21     4     5   ar
    22     4     2    1
    23     2     3    1
    24     3     1    3
    25     2    24    1
    26     2    25    1
    27     5    26    1
    28     6    27    1
    29     8    28    1
    30     9    29    1
    31    11    30    1
    32    13    31    1
    33    14    32    1
    34    15    33    1
    35    15    34    1
    36    15    35    1
    37    16    36    1
    38    17    37    1
