#

@<TRIPOS>MOLECULE
6LU7
 83 84 0 0 0
SMALL
USER_CHARGES

@<TRIPOS>ATOM
      1 C4        -10.4250    3.4200   72.4470 C.ar      1 LIG         0.0823
      2 C5         -9.9240    2.8570   73.6420 C.ar      1 LIG         0.1340
      3 C6         -9.3450    1.4580   73.8060 C.3       1 LIG         0.0906
      4 O1        -10.0480    3.7550   74.5750 O.2       1 LIG        -0.3609
      5 N2        -10.5850    4.8610   74.1140 N.ar      1 LIG        -0.0744
      6 C3        -10.8480    4.7380   72.8100 C.ar      1 LIG         0.1710
      7 C41       -11.4750    5.7980   71.8910 C.2       1 LIG         0.2736
      8 O42       -11.0620    5.9430   70.7930 O.2       1 LIG        -0.2673
      9 H1        -10.4778    2.9527   71.4637 H         1 LIG         0.0000
     10 H2         -9.0415    1.3090   74.8422 H         1 LIG         0.0000
     11 H3         -8.4787    1.3440   73.1543 H         1 LIG         0.0000
     12 H4        -10.0998    0.7183   73.5391 H         1 LIG         0.0000
     13 N         -12.5830    6.6250   72.3740 N.am      1 LIG        -0.1749
     14 CA        -13.1660    7.6250   71.4950 C.3       1 LIG         0.1682
     15 C         -12.1150    8.7500   71.2410 C.2       1 LIG         0.2425
     16 O         -11.4660    9.1590   72.1250 O.2       1 LIG        -0.2727
     17 CB        -14.3970    8.2180   72.1320 C.3       1 LIG         0.0414
     18 HN        -12.9605    6.4940   73.3666 H         1 LIG         0.0000
     19 HA        -13.4364    7.1607   70.5466 H         1 LIG         0.0000
     20 HB1       -14.8268    8.9662   71.4660 H         1 LIG         0.0000
     21 HB2       -14.1271    8.6869   73.0783 H         1 LIG         0.0000
     22 HB3       -15.1284    7.4303   72.3129 H         1 LIG         0.0000
     23 N1        -11.9430    9.2810   69.9110 N.am      1 LIG        -0.1784
     24 CA1       -10.9550   10.3360   69.6660 C.3       1 LIG         0.1735
     25 C1        -11.6630   11.6060   69.2730 C.2       1 LIG         0.2430
     26 O2        -12.3810   11.6170   68.3280 O.2       1 LIG        -0.2727
     27 CB1       -10.0040    9.8950   68.5150 C.3       1 LIG         0.0147
     28 CG1        -9.1300   11.0860   68.0120 C.3       1 LIG         0.0099
     29 CG2        -9.1160    8.6870   68.9550 C.3       1 LIG         0.0099
     30 HN1       -12.5362    8.9051   69.1037 H         1 LIG         0.0000
     31 HA1       -10.3743   10.5084   70.5721 H         1 LIG         0.0000
     32 HB        -10.6239    9.5641   67.6817 H         1 LIG         0.0000
     33 HG11       -8.4774   10.7445   67.2086 H         1 LIG         0.0000
     34 HG12       -8.5243   11.4658   68.8348 H         1 LIG         0.0000
     35 HG13       -9.7770   11.8808   67.6407 H         1 LIG         0.0000
     36 HG21       -8.4609    8.3985   68.1330 H         1 LIG         0.0000
     37 HG22       -9.7541    7.8449   69.2230 H         1 LIG         0.0000
     38 HG23       -8.5126    8.9737   69.8163 H         1 LIG         0.0000
     39 N3        -11.4800   12.6780   70.0440 N.am      1 LIG        -0.1786
     40 CA2       -12.1700   13.9630   69.7460 C.3       1 LIG         0.1712
     41 C2        -11.8040   14.4540   68.3410 C.2       1 LIG         0.2426
     42 O3        -10.6060   14.4420   68.0360 O.2       1 LIG        -0.2727
     43 CB2       -11.7950   14.9950   70.8110 C.3       1 LIG         0.0378
     44 CG        -12.5660   14.8760   72.1220 C.3       1 LIG        -0.0149
     45 CD1       -12.4700   16.1620   72.9250 C.3       1 LIG         0.0072
     46 CD2       -14.0170   14.5140   71.8610 C.3       1 LIG         0.0072
     47 HN2       -10.8275   12.6139   70.8896 H         1 LIG         0.0000
     48 HA2       -13.2465   13.7970   69.7867 H         1 LIG         0.0000
     49 HB4       -10.7334   14.8830   71.0315 H         1 LIG         0.0000
     50 HB5       -11.9784   15.9876   70.3996 H         1 LIG         0.0000
     51 HG        -12.1165   14.0749   72.7088 H         1 LIG         0.0000
     52 HD11      -13.0275   16.0526   73.8552 H         1 LIG         0.0000
     53 HD12      -12.8889   16.9848   72.3456 H         1 LIG         0.0000
     54 HD13      -11.4247   16.3726   73.1511 H         1 LIG         0.0000
     55 HD21      -14.5483   14.4343   72.8093 H         1 LIG         0.0000
     56 HD22      -14.0652   13.5595   71.3367 H         1 LIG         0.0000
     57 HD23      -14.4807   15.2879   71.2493 H         1 LIG         0.0000
     58 C19       -11.8320   15.4910   65.8780 C.3       1 LIG         0.1194
     59 C20       -12.4220   16.8900   65.6990 C.2       1 LIG         0.0105
     60 C21       -11.6670   17.9480   65.9020 C.2       1 LIG         0.0560
     61 C22       -10.2080   17.8200   66.3470 C.2       1 LIG         0.2525
     62 C25       -12.4370   14.5940   64.8060 C.3       1 LIG         0.0436
     63 C26       -11.8350   13.1990   64.8380 C.3       1 LIG         0.0823
     64 C27       -10.3680   13.2410   64.5720 C.3       1 LIG         0.0346
     65 C28       -10.1100   11.8920   63.8850 C.3       1 LIG         0.1164
     66 N6        -11.3860   11.5310   63.2320 N.am      1 LIG        -0.1929
     67 C29       -12.4280   12.3060   63.7870 C.2       1 LIG         0.2228
     68 O8        -13.5590   12.2600   63.4950 O.2       1 LIG        -0.2748
     69 N5        -12.2820   14.9940   67.1230 N.am      1 LIG        -0.1833
     70 O7         -9.9430   17.7850   67.5720 O.2       1 LIG        -0.2985
     71 H14       -10.7435   15.5048   65.8217 H         1 LIG         0.0000
     72 H15       -13.4645   17.0104   65.4042 H         1 LIG         0.0000
     73 H16       -12.0909   18.9405   65.7495 H         1 LIG         0.0000
     74 H17        -9.4091   17.7600   65.6079 H         1 LIG         0.0000
     75 H5        -13.5116   14.5192   64.9728 H         1 LIG         0.0000
     76 H6        -12.2506   15.0371   63.8277 H         1 LIG         0.0000
     77 H7        -12.0074   12.7582   65.8199 H         1 LIG         0.0000
     78 H8        -10.1116   14.0719   63.9148 H         1 LIG         0.0000
     79 H9         -9.8027   13.3235   65.5003 H         1 LIG         0.0000
     80 H10        -9.3166   11.9877   63.1437 H         1 LIG         0.0000
     81 H11        -9.8317   11.1372   64.6205 H         1 LIG         0.0000
     82 H12       -11.5019   10.7984   62.4608 H         1 LIG         0.0000
     83 H13       -13.3504   15.0429   67.1555 H         1 LIG         0.0000
@<TRIPOS>BOND
     1    1    2 2  
     2    1    6 1  
     3    2    3 1  
     4    2    4 1  
     5    4    5 1  
     6    5    6 2  
     7    6    7 1  
     8    7    8 2  
     9    1    9 1  
    10    3   10 1  
    11    3   11 1  
    12    3   12 1  
    13   13   14 1  
    14   14   15 1  
    15   15   16 2  
    16   14   17 1  
    17   13   18 1  
    18   14   19 1  
    19   17   20 1  
    20   17   21 1  
    21   17   22 1  
    22   23   24 1  
    23   24   25 1  
    24   25   26 2  
    25   24   27 1  
    26   27   28 1  
    27   27   29 1  
    28   23   30 1  
    29   24   31 1  
    30   27   32 1  
    31   28   33 1  
    32   28   34 1  
    33   28   35 1  
    34   29   36 1  
    35   29   37 1  
    36   29   38 1  
    37   39   40 1  
    38   40   41 1  
    39   41   42 2  
    40   40   43 1  
    41   43   44 1  
    42   44   45 1  
    43   44   46 1  
    44   39   47 1  
    45   40   48 1  
    46   43   49 1  
    47   43   50 1  
    48   44   51 1  
    49   45   52 1  
    50   45   53 1  
    51   45   54 1  
    52   46   55 1  
    53   46   56 1  
    54   46   57 1  
    55   58   59 1  
    56   58   62 1  
    57   58   69 1  
    58   59   60 2  
    59   60   61 1  
    60   61   70 2  
    61   62   63 1  
    62   63   64 1  
    63   63   67 1  
    64   64   65 1  
    65   65   66 1  
    66   66   67 am 
    67   67   68 2  
    68   58   71 1  
    69   59   72 1  
    70   60   73 1  
    71   61   74 1  
    72   62   75 1  
    73   62   76 1  
    74   63   77 1  
    75   64   78 1  
    76   64   79 1  
    77   65   80 1  
    78   65   81 1  
    79   66   82 1  
    80   69   83 1  
    81    7   13 am 
    82   41   69 am 
    83   15   23 am 
    84   25   39 am 
