/home/prabhav/02OnceMore/lig.pdb
  Mrv15b2305102316273D          

 37 38  0  0  0  0            999 V2000
    0.2466    1.6254    5.7920 N   0  0  0  0  0  0  0  0  0  0  0  0
    0.6185    0.6333    3.5166 C   0  0  1  0  0  0  0  0  0  0  0  0
    0.4167    1.1716    4.7513 C   0  0  0  0  0  0  0  0  0  0  0  0
   -0.6371    0.0829    3.0146 C   0  0  0  0  0  0  0  0  0  0  0  0
   -1.5039    0.9276    2.2511 C   0  0  0  0  0  0  0  0  0  0  0  0
   -2.7660    0.4124    1.8200 C   0  0  0  0  0  0  0  0  0  0  0  0
   -3.1545   -0.9193    2.2148 C   0  0  0  0  0  0  0  0  0  0  0  0
   -2.2239   -1.7972    2.8767 C   0  0  0  0  0  0  0  0  0  0  0  0
   -0.9549   -1.2763    3.3027 C   0  0  0  0  0  0  0  0  0  0  0  0
   -4.4747   -1.3255    2.0831 O   0  0  0  0  0  0  0  0  0  0  0  0
   -5.3417   -1.0685    3.2436 C   0  0  2  0  0  0  0  0  0  0  0  0
   -6.6411   -1.7236    2.9904 O   0  0  0  0  0  0  0  0  0  0  0  0
   -7.8756   -1.0826    3.4335 C   0  0  2  0  0  0  0  0  0  0  0  0
   -7.9240    0.4329    3.0712 C   0  0  1  0  0  0  0  0  0  0  0  0
   -8.0224   -1.2500    4.9472 C   0  0  0  0  0  0  0  0  0  0  0  0
   -6.5518    1.0862    2.7310 C   0  0  1  0  0  0  0  0  0  0  0  0
   -5.4257    0.4752    3.5834 C   0  0  1  0  0  0  0  0  0  0  0  0
   -8.8241    0.6330    1.9913 O   0  0  0  0  0  0  0  0  0  0  0  0
   -8.9477    1.5937    1.8427 H   0  0  0  0  0  0  0  0  0  0  0  0
   -6.2628    0.8908    1.3545 O   0  0  0  0  0  0  0  0  0  0  0  0
   -6.9800    1.2800    0.8117 H   0  0  0  0  0  0  0  0  0  0  0  0
   -5.7311    0.6408    4.9602 O   0  0  0  0  0  0  0  0  0  0  0  0
   -5.8135    1.5958    5.1640 H   0  0  0  0  0  0  0  0  0  0  0  0
    0.9736    1.4074    2.8363 H   0  0  0  0  0  0  0  0  0  0  0  0
    1.3623   -0.1606    3.5835 H   0  0  0  0  0  0  0  0  0  0  0  0
   -1.2261    1.8811    2.0184 H   0  0  0  0  0  0  0  0  0  0  0  0
   -3.3842    0.9798    1.2401 H   0  0  0  0  0  0  0  0  0  0  0  0
   -2.4627   -2.7752    3.0406 H   0  0  0  0  0  0  0  0  0  0  0  0
   -0.2925   -1.8690    3.8030 H   0  0  0  0  0  0  0  0  0  0  0  0
   -4.9017   -1.5859    4.1092 H   0  0  0  0  0  0  0  0  0  0  0  0
   -8.7182   -1.6034    2.9787 H   0  0  0  0  0  0  0  0  0  0  0  0
   -8.3257    0.9055    3.9675 H   0  0  0  0  0  0  0  0  0  0  0  0
   -7.9886   -2.3096    5.2006 H   0  0  0  0  0  0  0  0  0  0  0  0
   -8.9754   -0.8298    5.2685 H   0  0  0  0  0  0  0  0  0  0  0  0
   -7.2077   -0.7298    5.4510 H   0  0  0  0  0  0  0  0  0  0  0  0
   -6.6470    2.1541    2.9280 H   0  0  0  0  0  0  0  0  0  0  0  0
   -4.4624    0.9399    3.3732 H   0  0  0  0  0  0  0  0  0  0  0  0
 23 22  1  0  0  0  0
 17 22  1  0  0  0  0
 20 21  1  0  0  0  0
 16 20  1  0  0  0  0
 17 16  1  0  0  0  0
 17 11  1  0  0  0  0
 16 14  1  0  0  0  0
 19 18  1  0  0  0  0
 11 10  1  0  0  0  0
 10  7  1  0  0  0  0
 11 12  1  0  0  0  0
 14 18  1  0  0  0  0
 14 13  1  0  0  0  0
 12 13  1  0  0  0  0
  8  7  4  0  0  0  0
  8  9  4  0  0  0  0
  7  6  4  0  0  0  0
 13 15  1  0  0  0  0
  9  4  4  0  0  0  0
  6  5  4  0  0  0  0
  4  5  4  0  0  0  0
  4  2  1  0  0  0  0
  2  3  1  0  0  0  0
  3  1  3  0  0  0  0
  2 24  1  0  0  0  0
  2 25  1  0  0  0  0
  5 26  1  0  0  0  0
  6 27  1  0  0  0  0
  8 28  1  0  0  0  0
  9 29  1  0  0  0  0
 11 30  1  0  0  0  0
 13 31  1  0  0  0  0
 14 32  1  0  0  0  0
 15 33  1  0  0  0  0
 15 34  1  0  0  0  0
 15 35  1  0  0  0  0
 16 36  1  0  0  0  0
 17 37  1  0  0  0  0
M  END
