@<TRIPOS>MOLECULE
lig
 37 38 0 0 0
SMALL
GASTEIGER

@<TRIPOS>ATOM
      1 N           0.2466    1.6254    5.7920 N.1     1  UNL11      -0.1962
      2 C           0.6185    0.6333    3.5166 C.3     1  UNL11       0.0598
      3 C           0.4167    1.1716    4.7513 C.1     1  UNL11       0.0672
      4 C          -0.6371    0.0829    3.0146 C.ar    1  UNL11      -0.0334
      5 C          -1.5039    0.9276    2.2511 C.ar    1  UNL11      -0.0542
      6 C          -2.7660    0.4124    1.8200 C.ar    1  UNL11      -0.0195
      7 C          -3.1545   -0.9193    2.2148 C.ar    1  UNL11       0.1240
      8 C          -2.2239   -1.7972    2.8767 C.ar    1  UNL11      -0.0195
      9 C          -0.9549   -1.2763    3.3027 C.ar    1  UNL11      -0.0542
     10 O          -4.4747   -1.3255    2.0831 O.3     1  UNL11      -0.4608
     11 C          -5.3417   -1.0685    3.2436 C.3     1  UNL11       0.2307
     12 O          -6.6411   -1.7236    2.9904 O.3     1  UNL11      -0.3339
     13 C          -7.8756   -1.0826    3.4335 C.3     1  UNL11       0.0883
     14 C          -7.9240    0.4329    3.0712 C.3     1  UNL11       0.1096
     15 C          -8.0224   -1.2500    4.9472 C.3     1  UNL11      -0.0360
     16 C          -6.5518    1.0862    2.7310 C.3     1  UNL11       0.1151
     17 C          -5.4257    0.4752    3.5834 C.3     1  UNL11       0.1454
     18 O          -8.8241    0.6330    1.9913 O.3     1  UNL11      -0.3866
     19 H          -8.9477    1.5937    1.8427 H       1  UNL11       0.2100
     20 O          -6.2628    0.8908    1.3545 O.3     1  UNL11      -0.3864
     21 H          -6.9800    1.2800    0.8117 H       1  UNL11       0.2100
     22 O          -5.7311    0.6408    4.9602 O.3     1  UNL11      -0.3829
     23 H          -5.8135    1.5958    5.1640 H       1  UNL11       0.2102
     24 H           0.9736    1.4074    2.8363 H       1  UNL11       0.0467
     25 H           1.3623   -0.1606    3.5835 H       1  UNL11       0.0467
     26 H          -1.2261    1.8811    2.0184 H       1  UNL11       0.0622
     27 H          -3.3842    0.9798    1.2401 H       1  UNL11       0.0654
     28 H          -2.4627   -2.7752    3.0406 H       1  UNL11       0.0654
     29 H          -0.2925   -1.8690    3.8030 H       1  UNL11       0.0622
     30 H          -4.9017   -1.5859    4.1092 H       1  UNL11       0.1084
     31 H          -8.7182   -1.6034    2.9787 H       1  UNL11       0.0621
     32 H          -8.3257    0.9055    3.9675 H       1  UNL11       0.0646
     33 H          -7.9886   -2.3096    5.2006 H       1  UNL11       0.0255
     34 H          -8.9754   -0.8298    5.2685 H       1  UNL11       0.0255
     35 H          -7.2077   -0.7298    5.4510 H       1  UNL11       0.0255
     36 H          -6.6470    2.1541    2.9280 H       1  UNL11       0.0648
     37 H          -4.4624    0.9399    3.3732 H       1  UNL11       0.0683
@<TRIPOS>BOND
     1    23    22    1
     2    17    22    1
     3    20    21    1
     4    16    20    1
     5    17    16    1
     6    17    11    1
     7    16    14    1
     8    19    18    1
     9    11    10    1
    10    10     7    1
    11    11    12    1
    12    14    18    1
    13    14    13    1
    14    12    13    1
    15     8     7   ar
    16     8     9   ar
    17     7     6   ar
    18    13    15    1
    19     9     4   ar
    20     6     5   ar
    21     4     5   ar
    22     4     2    1
    23     2     3    1
    24     3     1    3
    25     2    24    1
    26     2    25    1
    27     5    26    1
    28     6    27    1
    29     8    28    1
    30     9    29    1
    31    11    30    1
    32    13    31    1
    33    14    32    1
    34    15    33    1
    35    15    34    1
    36    15    35    1
    37    16    36    1
    38    17    37    1
