/home/prabhav/02OnceMore/lig.pdb
  MJ221101                      

 37 38  0  0  0  0  0  0  0  0999 V2000
   -8.2233   10.8643    0.0000 N   0  0  0  0  0  0  0  0  0  0  0  0
   -8.2233    9.2143    0.0000 C   0  0  0  0  0  0  0  0  0  0  0  0
   -8.2233   10.0393    0.0000 C   0  0  0  0  0  0  0  0  0  0  0  0
   -7.5088    8.8018    0.0000 C   0  0  0  0  0  0  0  0  0  0  0  0
   -7.5088    7.9768    0.0000 C   0  0  0  0  0  0  0  0  0  0  0  0
   -6.7943    7.5643    0.0000 C   0  0  0  0  0  0  0  0  0  0  0  0
   -6.0799    7.9768    0.0000 C   0  0  0  0  0  0  0  0  0  0  0  0
   -6.0799    8.8018    0.0000 C   0  0  0  0  0  0  0  0  0  0  0  0
   -6.7943    9.2143    0.0000 C   0  0  0  0  0  0  0  0  0  0  0  0
   -5.3654    7.5643    0.0000 O   0  0  0  0  0  0  0  0  0  0  0  0
   -4.6509    7.9768    0.0000 C   0  0  0  0  0  0  0  0  0  0  0  0
   -3.9364    7.5643    0.0000 O   0  0  0  0  0  0  0  0  0  0  0  0
   -3.2219    7.9768    0.0000 C   0  0  0  0  0  0  0  0  0  0  0  0
   -3.2219    8.8018    0.0000 C   0  0  0  0  0  0  0  0  0  0  0  0
   -2.5075    7.5643    0.0000 C   0  0  0  0  0  0  0  0  0  0  0  0
   -3.9364    9.2143    0.0000 C   0  0  0  0  0  0  0  0  0  0  0  0
   -4.6509    8.8018    0.0000 C   0  0  0  0  0  0  0  0  0  0  0  0
   -2.5075    9.2143    0.0000 O   0  0  0  0  0  0  0  0  0  0  0  0
   -2.0950    9.9288    0.0000 H   0  0  0  0  0  0  0  0  0  0  0  0
   -3.9364   10.0393    0.0000 O   0  0  0  0  0  0  0  0  0  0  0  0
   -3.5239   10.7538    0.0000 H   0  0  0  0  0  0  0  0  0  0  0  0
   -5.3654    9.2143    0.0000 O   0  0  0  0  0  0  0  0  0  0  0  0
   -5.3654   10.0393    0.0000 H   0  0  0  0  0  0  0  0  0  0  0  0
   -9.0469    9.1663    0.0000 H   0  0  0  0  0  0  0  0  0  0  0  0
   -8.6766    8.5250    0.0000 H   0  0  0  0  0  0  0  0  0  0  0  0
   -8.2233    7.5643    0.0000 H   0  0  0  0  0  0  0  0  0  0  0  0
   -6.7943    6.7392    0.0000 H   0  0  0  0  0  0  0  0  0  0  0  0
   -6.0799    9.6268    0.0000 H   0  0  0  0  0  0  0  0  0  0  0  0
   -7.2068    9.9288    0.0000 H   0  0  0  0  0  0  0  0  0  0  0  0
   -5.3654    8.3893    0.0000 H   0  0  0  0  0  0  0  0  0  0  0  0
   -3.2219    7.1518    0.0000 H   0  0  0  0  0  0  0  0  0  0  0  0
   -2.5075    8.3893    0.0000 H   0  0  0  0  0  0  0  0  0  0  0  0
   -2.5075    6.7392    0.0000 H   0  0  0  0  0  0  0  0  0  0  0  0
   -1.7930    7.1518    0.0000 H   0  0  0  0  0  0  0  0  0  0  0  0
   -1.7930    7.9768    0.0000 H   0  0  0  0  0  0  0  0  0  0  0  0
   -4.6509    9.6268    0.0000 H   0  0  0  0  0  0  0  0  0  0  0  0
   -3.9364    8.3893    0.0000 H   0  0  0  0  0  0  0  0  0  0  0  0
 23 22  1  0  0  0  0
 17 22  1  1  0  0  0
 20 21  1  0  0  0  0
 16 20  1  1  0  0  0
 17 16  1  0  0  0  0
 17 11  1  0  0  0  0
 16 14  1  0  0  0  0
 19 18  1  0  0  0  0
 11 10  1  1  0  0  0
 10  7  1  0  0  0  0
 11 12  1  0  0  0  0
 14 18  1  1  0  0  0
 14 13  1  0  0  0  0
 12 13  1  0  0  0  0
  8  7  4  0  0  0  0
  8  9  4  0  0  0  0
  7  6  4  0  0  0  0
 13 15  1  6  0  0  0
  9  4  4  0  0  0  0
  6  5  4  0  0  0  0
  4  5  4  0  0  0  0
  4  2  1  0  0  0  0
  2  3  1  0  0  0  0
  3  1  3  0  0  0  0
  2 24  1  0  0  0  0
  2 25  1  0  0  0  0
  5 26  1  0  0  0  0
  6 27  1  0  0  0  0
  8 28  1  0  0  0  0
  9 29  1  0  0  0  0
 11 30  1  6  0  0  0
 13 31  1  1  0  0  0
 14 32  1  6  0  0  0
 15 33  1  0  0  0  0
 15 34  1  0  0  0  0
 15 35  1  0  0  0  0
 16 36  1  6  0  0  0
 17 37  1  1  0  0  0
M  END
